44205240
  -OEChem-10162222372D

 43 46  0     0  0  0  0  0  0999 V2000
    3.3461    1.9602    0.0000 S   0  0  0  0  0  0  0  0  0  0  0  0
    3.5025    2.9479    0.0000 O   0  0  0  0  0  0  0  0  0  0  0  0
    3.1896    0.9725    0.0000 O   0  0  0  0  0  0  0  0  0  0  0  0
    4.3337    1.8038    0.0000 N   0  0  0  0  0  0  0  0  0  0  0  0
    6.3183    0.7735    0.0000 N   0  0  0  0  0  0  0  0  0  0  0  0
    7.3183    0.7735    0.0000 N   0  0  0  0  0  0  0  0  0  0  0  0
    6.3305    4.1594    0.0000 N   0  0  0  0  0  0  0  0  0  0  0  0
    5.9523   -2.2653    0.0000 N   0  0  0  0  0  0  0  0  0  0  0  0
    8.6306   -3.5700    0.0000 N   0  0  0  0  0  0  0  0  0  0  0  0
    6.8183   -3.7653    0.0000 N   0  0  0  0  0  0  0  0  0  0  0  0
    5.7306    1.5825    0.0000 C   0  0  0  0  0  0  0  0  0  0  0  0
    4.9215    0.9948    0.0000 C   0  0  0  0  0  0  0  0  0  0  0  0
    5.1428    2.3916    0.0000 C   0  0  0  0  0  0  0  0  0  0  0  0
    6.5396    2.1703    0.0000 C   0  0  0  0  0  0  0  0  0  0  0  0
    2.3584    2.1166    0.0000 C   0  0  0  0  0  0  0  0  0  0  0  0
    6.0093   -0.1775    0.0000 C   0  0  0  0  0  0  0  0  0  0  0  0
    6.8183   -0.7653    0.0000 C   0  0  0  0  0  0  0  0  0  0  0  0
    6.4350    3.1648    0.0000 C   0  0  0  0  0  0  0  0  0  0  0  0
    7.6274   -0.1775    0.0000 C   0  0  0  0  0  0  0  0  0  0  0  0
    2.0000    3.0502    0.0000 C   0  0  0  0  0  0  0  0  0  0  0  0
    6.8183   -1.7653    0.0000 C   0  0  0  0  0  0  0  0  0  0  0  0
    7.6844   -2.2653    0.0000 C   0  0  0  0  0  0  0  0  0  0  0  0
    7.6844   -3.2653    0.0000 C   0  0  0  0  0  0  0  0  0  0  0  0
    8.6306   -1.9606    0.0000 C   0  0  0  0  0  0  0  0  0  0  0  0
    5.9523   -3.2653    0.0000 C   0  0  0  0  0  0  0  0  0  0  0  0
    9.2142   -2.7653    0.0000 C   0  0  0  0  0  0  0  0  0  0  0  0
    4.4199    0.6303    0.0000 H   0  0  0  0  0  0  0  0  0  0  0  0
    5.2860    0.4932    0.0000 H   0  0  0  0  0  0  0  0  0  0  0  0
    5.6444    2.7560    0.0000 H   0  0  0  0  0  0  0  0  0  0  0  0
    4.7783    2.8932    0.0000 H   0  0  0  0  0  0  0  0  0  0  0  0
    6.8114    1.6131    0.0000 H   0  0  0  0  0  0  0  0  0  0  0  0
    7.1356    2.3412    0.0000 H   0  0  0  0  0  0  0  0  0  0  0  0
    1.7498    1.9983    0.0000 H   0  0  0  0  0  0  0  0  0  0  0  0
    2.3692    1.4967    0.0000 H   0  0  0  0  0  0  0  0  0  0  0  0
    5.4197   -0.3691    0.0000 H   0  0  0  0  0  0  0  0  0  0  0  0
    8.2170   -0.3691    0.0000 H   0  0  0  0  0  0  0  0  0  0  0  0
    2.5788    3.2724    0.0000 H   0  0  0  0  0  0  0  0  0  0  0  0
    1.7778    3.6290    0.0000 H   0  0  0  0  0  0  0  0  0  0  0  0
    1.4212    2.8280    0.0000 H   0  0  0  0  0  0  0  0  0  0  0  0
    8.8232   -1.3713    0.0000 H   0  0  0  0  0  0  0  0  0  0  0  0
    8.8232   -4.1594    0.0000 H   0  0  0  0  0  0  0  0  0  0  0  0
    9.8342   -2.7653    0.0000 H   0  0  0  0  0  0  0  0  0  0  0  0
    5.4154   -3.5753    0.0000 H   0  0  0  0  0  0  0  0  0  0  0  0
  1  2  2  0  0  0  0
  1  3  2  0  0  0  0
  1  4  1  0  0  0  0
  1 15  1  0  0  0  0
  4 12  1  0  0  0  0
  4 13  1  0  0  0  0
  5  6  1  0  0  0  0
  5 11  1  0  0  0  0
  5 16  1  0  0  0  0
  6 19  2  0  0  0  0
  7 18  3  0  0  0  0
  8 21  1  0  0  0  0
  8 25  2  0  0  0  0
  9 23  1  0  0  0  0
  9 26  1  0  0  0  0
  9 41  1  0  0  0  0
 10 23  2  0  0  0  0
 10 25  1  0  0  0  0
 11 12  1  0  0  0  0
 11 13  1  0  0  0  0
 11 14  1  0  0  0  0
 12 27  1  0  0  0  0
 12 28  1  0  0  0  0
 13 29  1  0  0  0  0
 13 30  1  0  0  0  0
 14 18  1  0  0  0  0
 14 31  1  0  0  0  0
 14 32  1  0  0  0  0
 15 20  1  0  0  0  0
 15 33  1  0  0  0  0
 15 34  1  0  0  0  0
 16 17  2  0  0  0  0
 16 35  1  0  0  0  0
 17 19  1  0  0  0  0
 17 21  1  0  0  0  0
 19 36  1  0  0  0  0
 20 37  1  0  0  0  0
 20 38  1  0  0  0  0
 20 39  1  0  0  0  0
 21 22  2  0  0  0  0
 22 23  1  0  0  0  0
 22 24  1  0  0  0  0
 24 26  2  0  0  0  0
 24 40  1  0  0  0  0
 25 43  1  0  0  0  0
 26 42  1  0  0  0  0
M  END
> <PUBCHEM_COMPOUND_CID>
44205240

> <PUBCHEM_COMPOUND_CANONICALIZED>
1

> <PUBCHEM_CACTVS_COMPLEXITY>
678

> <PUBCHEM_CACTVS_HBOND_ACCEPTOR>
7

> <PUBCHEM_CACTVS_HBOND_DONOR>
1

> <PUBCHEM_CACTVS_ROTATABLE_BOND>
5

> <PUBCHEM_CACTVS_SUBSKEYS>
AAADceB7sABAAAAAAAAAAAAAAABYAWLAAAAsAAAAAAAAAFgB/gAAHAQYQAAADIjFXwS/sN7JkAKyBzZnZHDShCmxgqAZ2aA4ZJiI6OLA2dGUpAhomALIyC8QAAAOAAAAAAAAAAAAAAAAAAAAAAAAAAAAAA==

> <PUBCHEM_IUPAC_OPENEYE_NAME>
2-[1-ethylsulfonyl-3-[4-(7H-pyrrolo[2,3-d]pyrimidin-4-yl)pyrazol-1-yl]azetidin-3-yl]acetonitrile

> <PUBCHEM_IUPAC_CAS_NAME>
2-[1-ethylsulfonyl-3-[4-(7H-pyrrolo[2,3-d]pyrimidin-4-yl)-1-pyrazolyl]-3-azetidinyl]acetonitrile

> <PUBCHEM_IUPAC_NAME_MARKUP>
2-[1-ethylsulfonyl-3-[4-(7<I>H</I>-pyrrolo[2,3-d]pyrimidin-4-yl)pyrazol-1-yl]azetidin-3-yl]acetonitrile

> <PUBCHEM_IUPAC_NAME>
2-[1-ethylsulfonyl-3-[4-(7H-pyrrolo[2,3-d]pyrimidin-4-yl)pyrazol-1-yl]azetidin-3-yl]acetonitrile

> <PUBCHEM_IUPAC_SYSTEMATIC_NAME>
2-[1-ethylsulfonyl-3-[4-(7H-pyrrolo[2,3-d]pyrimidin-4-yl)pyrazol-1-yl]azetidin-3-yl]ethanenitrile

> <PUBCHEM_IUPAC_TRADITIONAL_NAME>
2-[1-esyl-3-[4-(7H-pyrrolo[2,3-d]pyrimidin-4-yl)pyrazol-1-yl]azetidin-3-yl]acetonitrile

> <PUBCHEM_IUPAC_INCHI>
InChI=1S/C16H17N7O2S/c1-2-26(24,25)22-9-16(10-22,4-5-17)23-8-12(7-21-23)14-13-3-6-18-15(13)20-11-19-14/h3,6-8,11H,2,4,9-10H2,1H3,(H,18,19,20)

> <PUBCHEM_IUPAC_INCHIKEY>
XUZMWHLSFXCVMG-UHFFFAOYSA-N

> <PUBCHEM_XLOGP3_AA>
-0.5

> <PUBCHEM_EXACT_MASS>
371.11644398

> <PUBCHEM_MOLECULAR_FORMULA>
C16H17N7O2S

> <PUBCHEM_MOLECULAR_WEIGHT>
371.4

> <PUBCHEM_OPENEYE_CAN_SMILES>
CCS(=O)(=O)N1CC(C1)(CC#N)N2C=C(C=N2)C3=C4C=CNC4=NC=N3

> <PUBCHEM_OPENEYE_ISO_SMILES>
CCS(=O)(=O)N1CC(C1)(CC#N)N2C=C(C=N2)C3=C4C=CNC4=NC=N3

> <PUBCHEM_CACTVS_TPSA>
129

> <PUBCHEM_MONOISOTOPIC_WEIGHT>
371.11644398

> <PUBCHEM_TOTAL_CHARGE>
0

> <PUBCHEM_HEAVY_ATOM_COUNT>
26

> <PUBCHEM_ATOM_DEF_STEREO_COUNT>
0

> <PUBCHEM_ATOM_UDEF_STEREO_COUNT>
0

> <PUBCHEM_BOND_DEF_STEREO_COUNT>
0

> <PUBCHEM_BOND_UDEF_STEREO_COUNT>
0

> <PUBCHEM_ISOTOPIC_ATOM_COUNT>
0

> <PUBCHEM_COMPONENT_COUNT>
1

> <PUBCHEM_CACTVS_TAUTO_COUNT>
3

> <PUBCHEM_COORDINATE_TYPE>
1
5
255

> <PUBCHEM_BONDANNOTATIONS>
10  23  8
10  25  8
16  17  8
17  19  8
21  22  8
22  23  8
22  24  8
24  26  8
5  16  8
5  6  8
6  19  8
8  21  8
8  25  8
9  23  8
9  26  8

$$$$
